 Model                     SWAT+ Mar 13 2024        MODULAR Rev 2024.61.0                                 
                                        zmx       usle_k       sumfc       sumul      usle_p     usle_ls        esco        epco     cn3_swf       perco     latq_co   tiledrain 
 sname           hydgrp                 (mm)                    (mm)        (mm)                                                                                     0=notile;1=tile;
1413.0          C                  2000.0000      0.0000    277.6550    727.3641      1.0000      0.4121      0.9500      1.0000      0.3000      0.5000      0.2000           0
1413.0          C                  2000.0000      0.0000    277.6550    727.3641      1.0000      1.2172      0.9500      1.0000      0.0000      0.0500      0.9000           0
1413.0          C                  2000.0000      0.0000    277.6550    727.3641      1.0000      1.5868      0.9500      1.0000      0.0000      0.0500      0.9000           0
1413.0          C                  2000.0000      0.0000    277.6550    727.3641      1.0000      7.1702      0.9500      1.0000      0.0000      0.0500      0.9000           0
1413.0          C                  2000.0000      0.0000    277.6550    727.3641      1.0000      0.3909      0.9500      1.0000      0.3000      0.5000      0.2000           0
1413.0          C                  2000.0000      0.0000    277.6550    727.3641      1.0000      0.4199      0.9500      1.0000      0.3000      0.5000      0.2000           0
1413.0          C                  2000.0000      0.0000    277.6550    727.3641      1.0000      1.7333      0.9500      1.0000      0.0000      0.0500      0.9000           0
1413.0          C                  2000.0000      0.0000    277.6550    727.3641      1.0000      6.6390      0.9500      1.0000      0.0000      0.0500      0.9000           0
1413.0          C                  2000.0000      0.0000    277.6550    727.3641      1.0000      0.4199      0.9500      1.0000      0.3000      0.5000      0.2000           0
1413.0          C                  2000.0000      0.0000    277.6550    727.3641      1.0000      1.7333      0.9500      1.0000      0.0000      0.0500      0.9000           0
1413.0          C                  2000.0000      0.0000    277.6550    727.3641      1.0000      6.6390      0.9500      1.0000      0.0000      0.0500      0.9000           0
1413.0          C                  2000.0000      0.0000    277.6550    727.3641      1.0000      0.4199      0.9500      1.0000      0.3000      0.5000      0.2000           0
1413.0          C                  2000.0000      0.0000    277.6550    727.3641      1.0000      1.7333      0.9500      1.0000      0.0000      0.0500      0.9000           0
1413.0          C                  2000.0000      0.0000    277.6550    727.3641      1.0000      6.6390      0.9500      1.0000      0.0000      0.0500      0.9000           0
1413.0          C                  2000.0000      0.0000    277.6550    727.3641      1.0000      0.6532      0.9500      1.0000      0.3000      0.5000      0.2000           0
1413.0          C                  2000.0000      0.0000    277.6550    727.3641      1.0000      1.3618      0.9500      1.0000      0.0000      0.0500      0.9000           0
1413.0          C                  2000.0000      0.0000    277.6550    727.3641      1.0000      7.0681      0.9500      1.0000      0.0000      0.0500      0.9000           0
1410.0          C                  2000.0000      0.0000    257.7950    504.3757      1.0000      0.7222      0.9500      1.0000      0.3000      0.5000      0.2000           0
1410.0          C                  2000.0000      0.0000    257.7950    504.3757      1.0000      1.1317      0.9500      1.0000      0.0000      0.0500      0.9000           0
1413.0          C                  2000.0000      0.0000    277.6550    727.3641      1.0000      0.5981      0.9500      1.0000      0.3000      0.5000      0.2000           0
1413.0          C                  2000.0000      0.0000    277.6550    727.3641      1.0000      1.7093      0.9500      1.0000      0.0000      0.0500      0.9000           0
1413.0          C                  2000.0000      0.0000    277.6550    727.3641      1.0000      7.5071      0.9500      1.0000      0.0000      0.0500      0.9000           0
1413.0          C                  2000.0000      0.0000    277.6550    727.3641      1.0000      1.7244      0.9500      1.0000      0.0000      0.0500      0.9000           0
1413.0          C                  2000.0000      0.0000    277.6550    727.3641      1.0000      0.6235      0.9500      1.0000      0.3000      0.5000      0.2000           0
1413.0          C                  2000.0000      0.0000    277.6550    727.3641      1.0000      7.0681      0.9500      1.0000      0.0000      0.0500      0.9000           0
1413.0          C                  2000.0000      0.0000    277.6550    727.3641      1.0000      1.7244      0.9500      1.0000      0.0000      0.0500      0.9000           0
1413.0          C                  2000.0000      0.0000    277.6550    727.3641      1.0000      0.6235      0.9500      1.0000      0.3000      0.5000      0.2000           0
1413.0          C                  2000.0000      0.0000    277.6550    727.3641      1.0000      7.0681      0.9500      1.0000      0.0000      0.0500      0.9000           0
1413.0          C                  2000.0000      0.0000    277.6550    727.3641      1.0000      1.7244      0.9500      1.0000      0.0000      0.0500      0.9000           0
1413.0          C                  2000.0000      0.0000    277.6550    727.3641      1.0000      0.6235      0.9500      1.0000      0.3000      0.5000      0.2000           0
1413.0          C                  2000.0000      0.0000    277.6550    727.3641      1.0000      7.0681      0.9500      1.0000      0.0000      0.0500      0.9000           0
1413.0          C                  2000.0000      0.0000    277.6550    727.3641      1.0000      0.4609      0.9500      1.0000      0.3000      0.5000      0.2000           0
1413.0          C                  2000.0000      0.0000    277.6550    727.3641      1.0000      1.2539      0.9500      1.0000      0.0000      0.0500      0.9000           0
1413.0          C                  2000.0000      0.0000    277.6550    727.3641      1.0000      0.3852      0.9500      1.0000      0.3000      0.5000      0.2000           0
1413.0          C                  2000.0000      0.0000    277.6550    727.3641      1.0000      1.7710      0.9500      1.0000      0.0000      0.0500      0.9000           0
1413.0          C                  2000.0000      0.0000    277.6550    727.3641      1.0000      6.2172      0.9500      1.0000      0.0000      0.0500      0.9000           0
1413.0          C                  2000.0000      0.0000    277.6550    727.3641      1.0000      0.5714      0.9500      1.0000      0.3000      0.5000      0.2000           0
1413.0          C                  2000.0000      0.0000    277.6550    727.3641      1.0000      1.4754      0.9500      1.0000      0.0000      0.0500      0.9000           0
1413.0          C                  2000.0000      0.0000    277.6550    727.3641      1.0000      7.1260      0.9500      1.0000      0.0000      0.0500      0.9000           0
1413.0          C                  2000.0000      0.0000    277.6550    727.3641      1.0000      1.9961      0.9500      1.0000      0.0000      0.0500      0.9000           0
1413.0          C                  2000.0000      0.0000    277.6550    727.3641      1.0000      7.3593      0.9500      1.0000      0.0000      0.0500      0.9000           0
1413.0          C                  2000.0000      0.0000    277.6550    727.3641      1.0000      1.9932      0.9500      1.0000      0.0000      0.0500      0.9000           0
1413.0          C                  2000.0000      0.0000    277.6550    727.3641      1.0000      7.3766      0.9500      1.0000      0.0000      0.0500      0.9000           0
1413.0          C                  2000.0000      0.0000    277.6550    727.3641      1.0000      1.9932      0.9500      1.0000      0.0000      0.0500      0.9000           0
1413.0          C                  2000.0000      0.0000    277.6550    727.3641      1.0000      7.3766      0.9500      1.0000      0.0000      0.0500      0.9000           0
1413.0          C                  2000.0000      0.0000    277.6550    727.3641      1.0000      1.9932      0.9500      1.0000      0.0000      0.0500      0.9000           0
1413.0          C                  2000.0000      0.0000    277.6550    727.3641      1.0000      7.3766      0.9500      1.0000      0.0000      0.0500      0.9000           0
1413.0          C                  2000.0000      0.0000    277.6550    727.3641      0.7500      0.4511      0.9500      1.0000      0.3000      0.5000      0.2000           0
1413.0          C                  2000.0000      0.0000    277.6550    727.3641      0.7500      1.2720      0.9500      1.0000      0.0000      0.0500      0.9000           0
1410.0          C                  2000.0000      0.0000    257.7950    504.3757      0.7500      0.3656      0.9500      1.0000      0.3000      0.5000      0.2000           0
1410.0          C                  2000.0000      0.0000    257.7950    504.3757      0.7500      1.9028      0.9500      1.0000      0.0000      0.0500      0.9000           0
1413.0          C                  2000.0000      0.0000    277.6550    727.3641      0.7500      0.8926      0.9500      1.0000      0.0000      0.5000      0.9000           0
1413.0          C                  2000.0000      0.0000    277.6550    727.3641      0.7500      0.5554      0.9500      1.0000      0.3000      0.5000      0.2000           0
1410.0          C                  2000.0000      0.0000    257.7950    504.3757      1.0000      0.9977      0.9500      1.0000      0.0000      0.0500      0.9000           0
1410.0          C                  2000.0000      0.0000    257.7950    504.3757      1.0000      0.5708      0.9500      1.0000      0.3000      0.5000      0.2000           0
1413.0          C                  2000.0000      0.0000    277.6550    727.3641      1.0000      0.6620      0.9500      1.0000      0.3000      0.5000      0.2000           0
1413.0          C                  2000.0000      0.0000    277.6550    727.3641      1.0000      1.1106      0.9500      1.0000      0.0000      0.0500      0.9000           0
1410.0          C                  2000.0000      0.0000    257.7950    504.3757      1.0000      0.8620      0.9500      1.0000      0.0000      0.5000      0.9000           0
1410.0          C                  2000.0000      0.0000    257.7950    504.3757      1.0000      0.5244      0.9500      1.0000      0.3000      0.5000      0.2000           0
1413.0          C                  2000.0000      0.0000    277.6550    727.3641      1.0000      0.5071      0.9500      1.0000      0.3000      0.5000      0.2000           0
1413.0          C                  2000.0000      0.0000    277.6550    727.3641      1.0000      1.5572      0.9500      1.0000      0.0000      0.0500      0.9000           0
1413.0          C                  2000.0000      0.0000    277.6550    727.3641      1.0000      8.4874      0.9500      1.0000      0.0000      0.0500      0.9000           0
1410.0          C                  2000.0000      0.0000    257.7950    504.3757      1.0000      0.5330      0.9500      1.0000      0.3000      0.5000      0.2000           0
1410.0          C                  2000.0000      0.0000    257.7950    504.3757      1.0000      1.6901      0.9500      1.0000      0.0000      0.0500      0.9000           0
1410.0          C                  2000.0000      0.0000    257.7950    504.3757      1.0000      8.7580      0.9500      1.0000      0.0000      0.0500      0.9000           0
1413.0          C                  2000.0000      0.0000    277.6550    727.3641      0.7500      0.4519      0.9500      1.0000      0.3000      0.5000      0.2000           0
1413.0          C                  2000.0000      0.0000    277.6550    727.3641      0.7500      1.6593      0.9500      1.0000      0.0000      0.0500      0.9000           0
1413.0          C                  2000.0000      0.0000    277.6550    727.3641      0.7500      7.0855      0.9500      1.0000      0.0000      0.0500      0.9000           0
1410.0          C                  2000.0000      0.0000    257.7950    504.3757      0.7500      0.5134      0.9500      1.0000      0.3000      0.5000      0.2000           0
1410.0          C                  2000.0000      0.0000    257.7950    504.3757      0.7500      1.4312      0.9500      1.0000      0.0000      0.0500      0.9000           0
1410.0          C                  2000.0000      0.0000    257.7950    504.3757      1.0000      1.8271      0.9500      1.0000      0.0000      0.0500      0.9000           0
1410.0          C                  2000.0000      0.0000    257.7950    504.3757      1.0000      8.8158      0.9500      1.0000      0.0000      0.0500      0.9000           0
1410.0          C                  2000.0000      0.0000    257.7950    504.3757      1.0000      0.4487      0.9500      1.0000      0.3000      0.5000      0.2000           0
1413.0          C                  2000.0000      0.0000    277.6550    727.3641      1.0000      9.0149      0.9500      1.0000      0.0000      0.0500      0.9000           0
1413.0          C                  2000.0000      0.0000    277.6550    727.3641      1.0000      1.9818      0.9500      1.0000      0.0000      0.0500      0.9000           0
1413.0          C                  2000.0000      0.0000    277.6550    727.3641      1.0000      0.4285      0.9500      1.0000      0.3000      0.5000      0.2000           0
1413.0          C                  2000.0000      0.0000    277.6550    727.3641      1.0000      0.3934      0.9500      1.0000      0.3000      0.5000      0.2000           0
1413.0          C                  2000.0000      0.0000    277.6550    727.3641      1.0000      9.5494      0.9500      1.0000      0.0000      0.0500      0.9000           0
1413.0          C                  2000.0000      0.0000    277.6550    727.3641      1.0000      1.6904      0.9500      1.0000      0.0000      0.0500      0.9000           0
1413.0          C                  2000.0000      0.0000    277.6550    727.3641      1.0000      1.8266      0.9500      1.0000      0.0000      0.0500      0.9000           0
1413.0          C                  2000.0000      0.0000    277.6550    727.3641      1.0000      0.3409      0.9500      1.0000      0.3000      0.5000      0.2000           0
1413.0          C                  2000.0000      0.0000    277.6550    727.3641      1.0000      8.1867      0.9500      1.0000      0.0000      0.0500      0.9000           0
1413.0          C                  2000.0000      0.0000    277.6550    727.3641      0.7500      1.1863      0.9500      1.0000      0.0000      0.0500      0.9000           0
1413.0          C                  2000.0000      0.0000    277.6550    727.3641      0.7500      0.4173      0.9500      1.0000      0.3000      0.5000      0.2000           0
1413.0          C                  2000.0000      0.0000    277.6550    727.3641      1.0000      2.0817      0.9500      1.0000      0.0000      0.0500      0.9000           0
1413.0          C                  2000.0000      0.0000    277.6550    727.3641      1.0000      7.7323      0.9500      1.0000      0.0000      0.0500      0.9000           0
1410.0          C                  2000.0000      0.0000    257.7950    504.3757      1.0000      2.2029      0.9500      1.0000      0.0000      0.0500      0.9000           0
1410.0          C                  2000.0000      0.0000    257.7950    504.3757      1.0000      6.5109      0.9500      1.0000      0.0000      0.0500      0.9000           0
1413.0          C                  2000.0000      0.0000    277.6550    727.3641      1.0000      2.0884      0.9500      1.0000      0.0000      0.0500      0.9000           0
1413.0          C                  2000.0000      0.0000    277.6550    727.3641      1.0000      7.2876      0.9500      1.0000      0.0000      0.0500      0.9000           0
1413.0          C                  2000.0000      0.0000    277.6550    727.3641      0.7500      1.0869      0.9500      1.0000      0.0000      0.0500      0.9000           0
1413.0          C                  2000.0000      0.0000    277.6550    727.3641      0.7500      0.4379      0.9500      1.0000      0.3000      0.5000      0.2000           0
1410.0          C                  2000.0000      0.0000    257.7950    504.3757      0.7500      1.0542      0.9500      1.0000      0.0000      0.0500      0.9000           0
1410.0          C                  2000.0000      0.0000    257.7950    504.3757      0.7500      0.4480      0.9500      1.0000      0.3000      0.5000      0.2000           0
1413.0          C                  2000.0000      0.0000    277.6550    727.3641      0.7500      0.4169      0.9500      1.0000      0.3000      0.5000      0.2000           0
1413.0          C                  2000.0000      0.0000    277.6550    727.3641      0.7500      1.0963      0.9500      1.0000      0.0000      0.0500      0.9000           0
1410.0          C                  2000.0000      0.0000    257.7950    504.3757      0.7500      1.0672      0.9500      1.0000      0.0000      0.0500      0.9000           0
1410.0          C                  2000.0000      0.0000    257.7950    504.3757      0.7500      0.5362      0.9500      1.0000      0.3000      0.5000      0.2000           0
1413.0          C                  2000.0000      0.0000    277.6550    727.3641      0.7500      6.1988      0.9500      1.0000      0.0000      0.0500      0.9000           0
1413.0          C                  2000.0000      0.0000    277.6550    727.3641      0.7500      1.6176      0.9500      1.0000      0.0000      0.0500      0.9000           0
1413.0          C                  2000.0000      0.0000    277.6550    727.3641      0.7500      0.5339      0.9500      1.0000      0.3000      0.5000      0.2000           0
1410.0          C                  2000.0000      0.0000    257.7950    504.3757      0.7500      0.7083      0.9500      1.0000      0.3000      0.5000      0.2000           0
1410.0          C                  2000.0000      0.0000    257.7950    504.3757      0.7500      1.4880      0.9500      1.0000      0.0000      0.0500      0.9000           0
1413.0          C                  2000.0000      0.0000    277.6550    727.3641      1.0000      6.1939      0.9500      1.0000      0.0000      0.0500      0.9000           0
1413.0          C                  2000.0000      0.0000    277.6550    727.3641      1.0000      2.2709      0.9500      1.0000      0.0000      0.0500      0.9000           0
1410.0          C                  2000.0000      0.0000    257.7950    504.3757      1.0000      1.9398      0.9500      1.0000      0.0000      0.0500      0.9000           0
1410.0          C                  2000.0000      0.0000    257.7950    504.3757      1.0000      6.5130      0.9500      1.0000      0.0000      0.0500      0.9000           0
1410.0          C                  2000.0000      0.0000    257.7950    504.3757      1.0000      0.6885      0.9500      1.0000      0.3000      0.5000      0.2000           0
1413.0          C                  2000.0000      0.0000    277.6550    727.3641      1.0000      1.7747      0.9500      1.0000      0.0000      0.0500      0.9000           0
1413.0          C                  2000.0000      0.0000    277.6550    727.3641      1.0000      7.2381      0.9500      1.0000      0.0000      0.0500      0.9000           0
1413.0          C                  2000.0000      0.0000    277.6550    727.3641      1.0000      0.6769      0.9500      1.0000      0.3000      0.5000      0.2000           0
1410.0          C                  2000.0000      0.0000    257.7950    504.3757      1.0000      1.6806      0.9500      1.0000      0.0000      0.0500      0.9000           0
1410.0          C                  2000.0000      0.0000    257.7950    504.3757      1.0000      0.5530      0.9500      1.0000      0.3000      0.5000      0.2000           0
1410.0          C                  2000.0000      0.0000    257.7950    504.3757      1.0000      5.5123      0.9500      1.0000      0.0000      0.0500      0.9000           0
1413.0          C                  2000.0000      0.0000    277.6550    727.3641      1.0000      1.9853      0.9500      1.0000      0.0000      0.0500      0.9000           0
1413.0          C                  2000.0000      0.0000    277.6550    727.3641      1.0000      7.3838      0.9500      1.0000      0.0000      0.0500      0.9000           0
1413.0          C                  2000.0000      0.0000    277.6550    727.3641      1.0000      0.6783      0.9500      1.0000      0.3000      0.5000      0.2000           0
1410.0          C                  2000.0000      0.0000    257.7950    504.3757      1.0000      1.3822      0.9500      1.0000      0.0000      0.0500      0.9000           0
1410.0          C                  2000.0000      0.0000    257.7950    504.3757      1.0000      7.1713      0.9500      1.0000      0.0000      0.0500      0.9000           0
1410.0          C                  2000.0000      0.0000    257.7950    504.3757      1.0000      0.4497      0.9500      1.0000      0.3000      0.5000      0.2000           0
1410.0          C                  2000.0000      0.0000    257.7950    504.3757      1.0000      0.5365      0.9500      1.0000      0.3000      0.5000      0.2000           0
1410.0          C                  2000.0000      0.0000    257.7950    504.3757      1.0000      1.5536      0.9500      1.0000      0.0000      0.0500      0.9000           0
1410.0          C                  2000.0000      0.0000    257.7950    504.3757      1.0000      6.1338      0.9500      1.0000      0.0000      0.0500      0.9000           0
1413.0          C                  2000.0000      0.0000    277.6550    727.3641      1.0000      2.0731      0.9500      1.0000      0.0000      0.0500      0.9000           0
1413.0          C                  2000.0000      0.0000    277.6550    727.3641      1.0000      6.4939      0.9500      1.0000      0.0000      0.0500      0.9000           0
1413.0          C                  2000.0000      0.0000    277.6550    727.3641      1.0000      0.4949      0.9500      1.0000      0.3000      0.5000      0.2000           0
1410.0          C                  2000.0000      0.0000    257.7950    504.3757      1.0000      0.5365      0.9500      1.0000      0.3000      0.5000      0.2000           0
1410.0          C                  2000.0000      0.0000    257.7950    504.3757      1.0000      1.5536      0.9500      1.0000      0.0000      0.0500      0.9000           0
1410.0          C                  2000.0000      0.0000    257.7950    504.3757      1.0000      6.1338      0.9500      1.0000      0.0000      0.0500      0.9000           0
1413.0          C                  2000.0000      0.0000    277.6550    727.3641      1.0000      2.0731      0.9500      1.0000      0.0000      0.0500      0.9000           0
1413.0          C                  2000.0000      0.0000    277.6550    727.3641      1.0000      6.4939      0.9500      1.0000      0.0000      0.0500      0.9000           0
1413.0          C                  2000.0000      0.0000    277.6550    727.3641      1.0000      0.4949      0.9500      1.0000      0.3000      0.5000      0.2000           0
1413.0          C                  2000.0000      0.0000    277.6550    727.3641      0.7500      0.4834      0.9500      1.0000      0.3000      0.5000      0.2000           0
1413.0          C                  2000.0000      0.0000    277.6550    727.3641      0.7500      1.3678      0.9500      1.0000      0.0000      0.0500      0.9000           0
1410.0          C                  2000.0000      0.0000    257.7950    504.3757      0.7500      0.3245      0.9500      1.0000      0.3000      0.5000      0.2000           0
1413.0          C                  2000.0000      0.0000    277.6550    727.3641      0.7500      0.4466      0.9500      1.0000      0.3000      0.5000      0.2000           0
1413.0          C                  2000.0000      0.0000    277.6550    727.3641      0.7500      1.1949      0.9500      1.0000      0.0000      0.0500      0.9000           0
1410.0          C                  2000.0000      0.0000    257.7950    504.3757      0.7500      1.0425      0.9500      1.0000      0.0000      0.0500      0.9000           0
1410.0          C                  2000.0000      0.0000    257.7950    504.3757      0.7500      0.6085      0.9500      1.0000      0.3000      0.5000      0.2000           0
1413.0          C                  2000.0000      0.0000    277.6550    727.3641      1.0000      1.9140      0.9500      1.0000      0.0000      0.0500      0.9000           0
1413.0          C                  2000.0000      0.0000    277.6550    727.3641      1.0000      6.3908      0.9500      1.0000      0.0000      0.0500      0.9000           0
1413.0          C                  2000.0000      0.0000    277.6550    727.3641      1.0000      0.5543      0.9500      1.0000      0.3000      0.5000      0.2000           0
1410.0          C                  2000.0000      0.0000    257.7950    504.3757      1.0000      1.7996      0.9500      1.0000      0.0000      0.0500      0.9000           0
1410.0          C                  2000.0000      0.0000    257.7950    504.3757      1.0000      6.7071      0.9500      1.0000      0.0000      0.0500      0.9000           0
1410.0          C                  2000.0000      0.0000    257.7950    504.3757      1.0000      0.6127      0.9500      1.0000      0.3000      0.5000      0.2000           0
1413.0          C                  2000.0000      0.0000    277.6550    727.3641      1.0000      8.0313      0.9500      1.0000      0.0000      0.0500      0.9000           0
1413.0          C                  2000.0000      0.0000    277.6550    727.3641      1.0000      1.8579      0.9500      1.0000      0.0000      0.0500      0.9000           0
1413.0          C                  2000.0000      0.0000    277.6550    727.3641      1.0000      0.6673      0.9500      1.0000      0.3000      0.5000      0.2000           0
1410.0          C                  2000.0000      0.0000    257.7950    504.3757      1.0000      1.1367      0.9500      1.0000      0.0000      0.0500      0.9000           0
1410.0          C                  2000.0000      0.0000    257.7950    504.3757      1.0000      0.5359      0.9500      1.0000      0.3000      0.5000      0.2000           0
1410.0          C                  2000.0000      0.0000    257.7950    504.3757      1.0000      8.9825      0.9500      1.0000      0.0000      0.0500      0.9000           0
1413.0          C                  2000.0000      0.0000    277.6550    727.3641      1.0000      1.7733      0.9500      1.0000      0.0000      0.0500      0.9000           0
1413.0          C                  2000.0000      0.0000    277.6550    727.3641      1.0000      7.9242      0.9500      1.0000      0.0000      0.0500      0.9000           0
1413.0          C                  2000.0000      0.0000    277.6550    727.3641      1.0000      0.7094      0.9500      1.0000      0.3000      0.5000      0.2000           0
1413.0          C                  2000.0000      0.0000    277.6550    727.3641      1.0000      1.8543      0.9500      1.0000      0.0000      0.0500      0.9000           0
1413.0          C                  2000.0000      0.0000    277.6550    727.3641      1.0000      7.7802      0.9500      1.0000      0.0000      0.0500      0.9000           0
1413.0          C                  2000.0000      0.0000    277.6550    727.3641      1.0000      0.6026      0.9500      1.0000      0.3000      0.5000      0.2000           0
1413.0          C                  2000.0000      0.0000    277.6550    727.3641      1.0000      1.8543      0.9500      1.0000      0.0000      0.0500      0.9000           0
1413.0          C                  2000.0000      0.0000    277.6550    727.3641      1.0000      7.7802      0.9500      1.0000      0.0000      0.0500      0.9000           0
1413.0          C                  2000.0000      0.0000    277.6550    727.3641      1.0000      0.6026      0.9500      1.0000      0.3000      0.5000      0.2000           0
1413.0          C                  2000.0000      0.0000    277.6550    727.3641      0.7500      1.1854      0.9500      1.0000      0.0000      0.0500      0.9000           0
1413.0          C                  2000.0000      0.0000    277.6550    727.3641      0.7500      0.4867      0.9500      1.0000      0.3000      0.5000      0.2000           0
1410.0          C                  2000.0000      0.0000    257.7950    504.3757      0.7500      0.4069      0.9500      1.0000      0.3000      0.5000      0.2000           0
1410.0          C                  2000.0000      0.0000    257.7950    504.3757      0.7500      1.1894      0.9500      1.0000      0.0000      0.0500      0.9000           0
1410.0          C                  2000.0000      0.0000    257.7950    504.3757      0.7500      0.2999      0.9500      1.0000      0.3000      0.5000      0.2000           0
1410.0          C                  2000.0000      0.0000    257.7950    504.3757      0.7500      1.4083      0.9500      1.0000      0.0000      0.0500      0.9000           0
1413.0          C                  2000.0000      0.0000    277.6550    727.3641      0.7500      1.7386      0.9500      1.0000      0.0000      0.0500      0.9000           0
1413.0          C                  2000.0000      0.0000    277.6550    727.3641      0.7500      0.3478      0.9500      1.0000      0.3000      0.5000      0.2000           0
1413.0          C                  2000.0000      0.0000    277.6550    727.3641      0.7500      7.4730      0.9500      1.0000      0.0000      0.0500      0.9000           0
1413.0          C                  2000.0000      0.0000    277.6550    727.3641      1.0000      1.9174      0.9500      1.0000      0.0000      0.0500      0.9000           0
1413.0          C                  2000.0000      0.0000    277.6550    727.3641      1.0000      0.6563      0.9500      1.0000      0.3000      0.5000      0.2000           0
1413.0          C                  2000.0000      0.0000    277.6550    727.3641      1.0000      8.2095      0.9500      1.0000      0.0000      0.0500      0.9000           0
1413.0          C                  2000.0000      0.0000    277.6550    727.3641      1.0000      0.7301      0.9500      1.0000      0.3000      0.5000      0.2000           0
1413.0          C                  2000.0000      0.0000    277.6550    727.3641      1.0000      1.8657      0.9500      1.0000      0.0000      0.0500      0.9000           0
1413.0          C                  2000.0000      0.0000    277.6550    727.3641      1.0000      7.1144      0.9500      1.0000      0.0000      0.0500      0.9000           0
1410.0          C                  2000.0000      0.0000    257.7950    504.3757      1.0000      2.2111      0.9500      1.0000      0.0000      0.0500      0.9000           0
1410.0          C                  2000.0000      0.0000    257.7950    504.3757      1.0000      6.5763      0.9500      1.0000      0.0000      0.0500      0.9000           0
1413.0          C                  2000.0000      0.0000    277.6550    727.3641      1.0000      0.5640      0.9500      1.0000      0.3000      0.5000      0.2000           0
1413.0          C                  2000.0000      0.0000    277.6550    727.3641      1.0000      1.7654      0.9500      1.0000      0.0000      0.0500      0.9000           0
1413.0          C                  2000.0000      0.0000    277.6550    727.3641      1.0000      7.1866      0.9500      1.0000      0.0000      0.0500      0.9000           0
1410.0          C                  2000.0000      0.0000    257.7950    504.3757      1.0000      6.6891      0.9500      1.0000      0.0000      0.0500      0.9000           0
1410.0          C                  2000.0000      0.0000    257.7950    504.3757      1.0000      1.8253      0.9500      1.0000      0.0000      0.0500      0.9000           0
1410.0          C                  2000.0000      0.0000    257.7950    504.3757      1.0000      0.5923      0.9500      1.0000      0.3000      0.5000      0.2000           0
1413.0          C                  2000.0000      0.0000    277.6550    727.3641      0.7500      1.6315      0.9500      1.0000      0.0000      0.0500      0.9000           0
1413.0          C                  2000.0000      0.0000    277.6550    727.3641      0.7500      6.5477      0.9500      1.0000      0.0000      0.0500      0.9000           0
1413.0          C                  2000.0000      0.0000    277.6550    727.3641      0.7500      0.5403      0.9500      1.0000      0.3000      0.5000      0.2000           0
1410.0          C                  2000.0000      0.0000    257.7950    504.3757      0.7500      0.7429      0.9500      1.0000      0.3000      0.5000      0.2000           0
1410.0          C                  2000.0000      0.0000    257.7950    504.3757      0.7500      1.6074      0.9500      1.0000      0.0000      0.0500      0.9000           0
1410.0          C                  2000.0000      0.0000    257.7950    504.3757      0.7500      5.6452      0.9500      1.0000      0.0000      0.0500      0.9000           0
1413.0          C                  2000.0000      0.0000    277.6550    727.3641      1.0000      2.2451      0.9500      1.0000      0.0000      0.0500      0.9000           0
1413.0          C                  2000.0000      0.0000    277.6550    727.3641      1.0000      7.2027      0.9500      1.0000      0.0000      0.0500      0.9000           0
1413.0          C                  2000.0000      0.0000    277.6550    727.3641      1.0000      2.2451      0.9500      1.0000      0.0000      0.0500      0.9000           0
1413.0          C                  2000.0000      0.0000    277.6550    727.3641      1.0000      7.2027      0.9500      1.0000      0.0000      0.0500      0.9000           0
1413.0          C                  2000.0000      0.0000    277.6550    727.3641      1.0000      1.7977      0.9500      1.0000      0.0000      0.0500      0.9000           0
1413.0          C                  2000.0000      0.0000    277.6550    727.3641      1.0000      0.4231      0.9500      1.0000      0.3000      0.5000      0.2000           0
1413.0          C                  2000.0000      0.0000    277.6550    727.3641      1.0000      0.3772      0.9500      1.0000      0.3000      0.5000      0.2000           0
1413.0          C                  2000.0000      0.0000    277.6550    727.3641      1.0000      1.6535      0.9500      1.0000      0.0000      0.0500      0.9000           0
1413.0          C                  2000.0000      0.0000    277.6550    727.3641      1.0000      0.3175      0.9500      1.0000      0.3000      0.5000      0.2000           0
1413.0          C                  2000.0000      0.0000    277.6550    727.3641      1.0000      1.7344      0.9500      1.0000      0.0000      0.0500      0.9000           0
1413.0          C                  2000.0000      0.0000    277.6550    727.3641      1.0000      7.7849      0.9500      1.0000      0.0000      0.0500      0.9000           0
1413.0          C                  2000.0000      0.0000    277.6550    727.3641      1.0000      1.7369      0.9500      1.0000      0.0000      0.0500      0.9000           0
1413.0          C                  2000.0000      0.0000    277.6550    727.3641      1.0000      6.7042      0.9500      1.0000      0.0000      0.0500      0.9000           0
1413.0          C                  2000.0000      0.0000    277.6550    727.3641      1.0000      0.6147      0.9500      1.0000      0.3000      0.5000      0.2000           0
1413.0          C                  2000.0000      0.0000    277.6550    727.3641      1.0000      1.6379      0.9500      1.0000      0.0000      0.0500      0.9000           0
1413.0          C                  2000.0000      0.0000    277.6550    727.3641      1.0000      0.6472      0.9500      1.0000      0.3000      0.5000      0.2000           0
1413.0          C                  2000.0000      0.0000    277.6550    727.3641      1.0000      6.3537      0.9500      1.0000      0.0000      0.0500      0.9000           0
1413.0          C                  2000.0000      0.0000    277.6550    727.3641      1.0000      0.4339      0.9500      1.0000      0.3000      0.5000      0.2000           0
1413.0          C                  2000.0000      0.0000    277.6550    727.3641      1.0000      1.9119      0.9500      1.0000      0.0000      0.0500      0.9000           0
1413.0          C                  2000.0000      0.0000    277.6550    727.3641      1.0000      7.2134      0.9500      1.0000      0.0000      0.0500      0.9000           0
1413.0          C                  2000.0000      0.0000    277.6550    727.3641      1.0000      2.4402      0.9500      1.0000      0.0000      0.0500      0.9000           0
1413.0          C                  2000.0000      0.0000    277.6550    727.3641      1.0000      5.2949      0.9500      1.0000      0.0000      0.0500      0.9000           0
1413.0          C                  2000.0000      0.0000    277.6550    727.3641      1.0000      0.3930      0.9500      1.0000      0.3000      0.5000      0.2000           0
1413.0          C                  2000.0000      0.0000    277.6550    727.3641      1.0000      1.3595      0.9500      1.0000      0.0000      0.0500      0.9000           0
1413.0          C                  2000.0000      0.0000    277.6550    727.3641      1.0000      0.5917      0.9500      1.0000      0.3000      0.5000      0.2000           0
1413.0          C                  2000.0000      0.0000    277.6550    727.3641      1.0000      0.5767      0.9500      1.0000      0.3000      0.5000      0.2000           0
1413.0          C                  2000.0000      0.0000    277.6550    727.3641      1.0000      1.6564      0.9500      1.0000      0.0000      0.0500      0.9000           0
1413.0          C                  2000.0000      0.0000    277.6550    727.3641      1.0000      5.7171      0.9500      1.0000      0.0000      0.0500      0.9000           0
1410.0          C                  2000.0000      0.0000    257.7950    504.3757      1.0000      0.7045      0.9500      1.0000      0.3000      0.5000      0.2000           0
1410.0          C                  2000.0000      0.0000    257.7950    504.3757      1.0000      1.9917      0.9500      1.0000      0.0000      0.0500      0.9000           0
1410.0          C                  2000.0000      0.0000    257.7950    504.3757      1.0000      5.2172      0.9500      1.0000      0.0000      0.0500      0.9000           0
1413.0          C                  2000.0000      0.0000    277.6550    727.3641      1.0000      0.5533      0.9500      1.0000      0.3000      0.5000      0.2000           0
1413.0          C                  2000.0000      0.0000    277.6550    727.3641      1.0000      1.7028      0.9500      1.0000      0.0000      0.0500      0.9000           0
1413.0          C                  2000.0000      0.0000    277.6550    727.3641      1.0000      7.0759      0.9500      1.0000      0.0000      0.0500      0.9000           0
1413.0          C                  2000.0000      0.0000    277.6550    727.3641      1.0000      1.3047      0.9500      1.0000      0.0000      0.0500      0.9000           0
1413.0          C                  2000.0000      0.0000    277.6550    727.3641      1.0000      0.5644      0.9500      1.0000      0.3000      0.5000      0.2000           0
1413.0          C                  2000.0000      0.0000    277.6550    727.3641      1.0000      1.3047      0.9500      1.0000      0.0000      0.0500      0.9000           0
1413.0          C                  2000.0000      0.0000    277.6550    727.3641      1.0000      0.5644      0.9500      1.0000      0.3000      0.5000      0.2000           0
1413.0          C                  2000.0000      0.0000    277.6550    727.3641      1.0000      0.4002      0.9500      1.0000      0.3000      0.5000      0.2000           0
1413.0          C                  2000.0000      0.0000    277.6550    727.3641      1.0000      1.5411      0.9500      1.0000      0.0000      0.0500      0.9000           0
1413.0          C                  2000.0000      0.0000    277.6550    727.3641      1.0000      7.2252      0.9500      1.0000      0.0000      0.0500      0.9000           0
1410.0          C                  2000.0000      0.0000    257.7950    504.3757      1.0000      0.4375      0.9500      1.0000      0.3000      0.5000      0.2000           0
1410.0          C                  2000.0000      0.0000    257.7950    504.3757      1.0000      1.4364      0.9500      1.0000      0.0000      0.0500      0.9000           0
1410.0          C                  2000.0000      0.0000    257.7950    504.3757      1.0000      7.1976      0.9500      1.0000      0.0000      0.0500      0.9000           0
1410.0          C                  2000.0000      0.0000    257.7950    504.3757      0.7500      0.5610      0.9500      1.0000      0.3000      0.5000      0.2000           0
1410.0          C                  2000.0000      0.0000    257.7950    504.3757      0.7500      0.9970      0.9500      1.0000      0.0000      0.0500      0.9000           0
1413.0          C                  2000.0000      0.0000    277.6550    727.3641      0.7500      0.4506      0.9500      1.0000      0.3000      0.5000      0.2000           0
1413.0          C                  2000.0000      0.0000    277.6550    727.3641      0.7500      1.2495      0.9500      1.0000      0.0000      0.0500      0.9000           0
1410.0          C                  2000.0000      0.0000    257.7950    504.3757      1.0000      8.6156      0.9500      1.0000      0.0000      0.0500      0.9000           0
1410.0          C                  2000.0000      0.0000    257.7950    504.3757      1.0000      1.7303      0.9500      1.0000      0.0000      0.0500      0.9000           0
1410.0          C                  2000.0000      0.0000    257.7950    504.3757      1.0000      0.3524      0.9500      1.0000      0.3000      0.5000      0.2000           0
1413.0          C                  2000.0000      0.0000    277.6550    727.3641      1.0000      8.7977      0.9500      1.0000      0.0000      0.0500      0.9000           0
1413.0          C                  2000.0000      0.0000    277.6550    727.3641      1.0000      1.8173      0.9500      1.0000      0.0000      0.0500      0.9000           0
1413.0          C                  2000.0000      0.0000    277.6550    727.3641      1.0000      0.3566      0.9500      1.0000      0.3000      0.5000      0.2000           0
1413.0          C                  2000.0000      0.0000    277.6550    727.3641      1.0000      0.5429      0.9500      1.0000      0.3000      0.5000      0.2000           0
1413.0          C                  2000.0000      0.0000    277.6550    727.3641      1.0000      0.9896      0.9500      1.0000      0.0000      0.0500      0.9000           0
1410.0          C                  2000.0000      0.0000    257.7950    504.3757      1.0000      1.4552      0.9500      1.0000      0.0000      0.0500      0.9000           0
1410.0          C                  2000.0000      0.0000    257.7950    504.3757      1.0000      0.4771      0.9500      1.0000      0.3000      0.5000      0.2000           0
1413.0          C                  2000.0000      0.0000    277.6550    727.3641      1.0000      0.5429      0.9500      1.0000      0.3000      0.5000      0.2000           0
1413.0          C                  2000.0000      0.0000    277.6550    727.3641      1.0000      0.9896      0.9500      1.0000      0.0000      0.0500      0.9000           0
1410.0          C                  2000.0000      0.0000    257.7950    504.3757      1.0000      1.4552      0.9500      1.0000      0.0000      0.0500      0.9000           0
1410.0          C                  2000.0000      0.0000    257.7950    504.3757      1.0000      0.4771      0.9500      1.0000      0.3000      0.5000      0.2000           0
1413.0          C                  2000.0000      0.0000    277.6550    727.3641      1.0000      1.5281      0.9500      1.0000      0.0000      0.0500      0.9000           0
1413.0          C                  2000.0000      0.0000    277.6550    727.3641      1.0000      7.6026      0.9500      1.0000      0.0000      0.0500      0.9000           0
1413.0          C                  2000.0000      0.0000    277.6550    727.3641      1.0000      0.5504      0.9500      1.0000      0.3000      0.5000      0.2000           0
1410.0          C                  2000.0000      0.0000    257.7950    504.3757      1.0000      0.7496      0.9500      1.0000      0.3000      0.5000      0.2000           0
1410.0          C                  2000.0000      0.0000    257.7950    504.3757      1.0000      1.4065      0.9500      1.0000      0.0000      0.0500      0.9000           0
1410.0          C                  2000.0000      0.0000    257.7950    504.3757      1.0000      7.1635      0.9500      1.0000      0.0000      0.0500      0.9000           0
1413.0          C                  2000.0000      0.0000    277.6550    727.3641      1.0000      8.6591      0.9500      1.0000      0.0000      0.0500      0.9000           0
1413.0          C                  2000.0000      0.0000    277.6550    727.3641      1.0000      1.8178      0.9500      1.0000      0.0000      0.0500      0.9000           0
1413.0          C                  2000.0000      0.0000    277.6550    727.3641      1.0000      0.7167      0.9500      1.0000      0.3000      0.5000      0.2000           0
1410.0          C                  2000.0000      0.0000    257.7950    504.3757      1.0000      1.5678      0.9500      1.0000      0.0000      0.0500      0.9000           0
1410.0          C                  2000.0000      0.0000    257.7950    504.3757      1.0000      0.5484      0.9500      1.0000      0.3000      0.5000      0.2000           0
1410.0          C                  2000.0000      0.0000    257.7950    504.3757      1.0000      7.8944      0.9500      1.0000      0.0000      0.0500      0.9000           0
1413.0          C                  2000.0000      0.0000    277.6550    727.3641      0.7500      1.4060      0.9500      1.0000      0.0000      0.0500      0.9000           0
1413.0          C                  2000.0000      0.0000    277.6550    727.3641      0.7500      0.6939      0.9500      1.0000      0.3000      0.5000      0.2000           0
1410.0          C                  2000.0000      0.0000    257.7950    504.3757      0.7500      1.2698      0.9500      1.0000      0.0000      0.0500      0.9000           0
1410.0          C                  2000.0000      0.0000    257.7950    504.3757      0.7500      0.6984      0.9500      1.0000      0.3000      0.5000      0.2000           0
1413.0          C                  2000.0000      0.0000    277.6550    727.3641      1.0000      1.4170      0.9500      1.0000      0.0000      0.0500      0.9000           0
1413.0          C                  2000.0000      0.0000    277.6550    727.3641      1.0000      0.7012      0.9500      1.0000      0.3000      0.5000      0.2000           0
1410.0          C                  2000.0000      0.0000    257.7950    504.3757      1.0000      0.6944      0.9500      1.0000      0.3000      0.5000      0.2000           0
1410.0          C                  2000.0000      0.0000    257.7950    504.3757      1.0000      1.2521      0.9500      1.0000      0.0000      0.0500      0.9000           0
1413.0          C                  2000.0000      0.0000    277.6550    727.3641      1.0000      1.4170      0.9500      1.0000      0.0000      0.0500      0.9000           0
1413.0          C                  2000.0000      0.0000    277.6550    727.3641      1.0000      0.7012      0.9500      1.0000      0.3000      0.5000      0.2000           0
1410.0          C                  2000.0000      0.0000    257.7950    504.3757      1.0000      0.6944      0.9500      1.0000      0.3000      0.5000      0.2000           0
1410.0          C                  2000.0000      0.0000    257.7950    504.3757      1.0000      1.2521      0.9500      1.0000      0.0000      0.0500      0.9000           0
1413.0          C                  2000.0000      0.0000    277.6550    727.3641      1.0000      0.3712      0.9500      1.0000      0.3000      0.5000      0.2000           0
1413.0          C                  2000.0000      0.0000    277.6550    727.3641      1.0000      1.9940      0.9500      1.0000      0.0000      0.0500      0.9000           0
1413.0          C                  2000.0000      0.0000    277.6550    727.3641      1.0000      6.2811      0.9500      1.0000      0.0000      0.0500      0.9000           0
1410.0          C                  2000.0000      0.0000    257.7950    504.3757      1.0000      7.0075      0.9500      1.0000      0.0000      0.0500      0.9000           0
1410.0          C                  2000.0000      0.0000    257.7950    504.3757      1.0000      2.2408      0.9500      1.0000      0.0000      0.0500      0.9000           0
1410.0          C                  2000.0000      0.0000    257.7950    504.3757      1.0000      0.2718      0.9500      1.0000      0.9500      0.5000      0.0100           0
1410.0          C                  2000.0000      0.0000    257.7950    504.3757      0.7500      1.6757      0.9500      1.0000      0.0000      0.0500      0.9000           0
1410.0          C                  2000.0000      0.0000    257.7950    504.3757      0.7500      0.4523      0.9500      1.0000      0.3000      0.5000      0.2000           0
1413.0          C                  2000.0000      0.0000    277.6550    727.3641      0.7500      0.2492      0.9500      1.0000      0.9500      0.5000      0.0100           0
1413.0          C                  2000.0000      0.0000    277.6550    727.3641      0.7500      1.5182      0.9500      1.0000      0.0000      0.0500      0.9000           0
1413.0          C                  2000.0000      0.0000    277.6550    727.3641      1.0000      1.9335      0.9500      1.0000      0.0000      0.0500      0.9000           0
1413.0          C                  2000.0000      0.0000    277.6550    727.3641      1.0000      0.4186      0.9500      1.0000      0.3000      0.5000      0.2000           0
1413.0          C                  2000.0000      0.0000    277.6550    727.3641      1.0000      6.3271      0.9500      1.0000      0.0000      0.0500      0.9000           0
1413.0          C                  2000.0000      0.0000    277.6550    727.3641      0.7500      0.6695      0.9500      1.0000      0.3000      0.5000      0.2000           0
1413.0          C                  2000.0000      0.0000    277.6550    727.3641      0.7500      1.6901      0.9500      1.0000      0.0000      0.0500      0.9000           0
1410.0          C                  2000.0000      0.0000    257.7950    504.3757      0.7500      1.6296      0.9500      1.0000      0.0000      0.0500      0.9000           0
1410.0          C                  2000.0000      0.0000    257.7950    504.3757      0.7500      0.4621      0.9500      1.0000      0.3000      0.5000      0.2000           0
1413.0          C                  2000.0000      0.0000    277.6550    727.3641      1.0000      1.8478      0.9500      1.0000      0.0000      0.0500      0.9000           0
1413.0          C                  2000.0000      0.0000    277.6550    727.3641      1.0000      0.7204      0.9500      1.0000      0.3000      0.5000      0.2000           0
1413.0          C                  2000.0000      0.0000    277.6550    727.3641      1.0000      8.5267      0.9500      1.0000      0.0000      0.0500      0.9000           0
1410.0          C                  2000.0000      0.0000    257.7950    504.3757      1.0000      2.2664      0.9500      1.0000      0.0000      0.0500      0.9000           0
1410.0          C                  2000.0000      0.0000    257.7950    504.3757      1.0000      8.5751      0.9500      1.0000      0.0000      0.0500      0.9000           0
1410.0          C                  2000.0000      0.0000    257.7950    504.3757      1.0000      0.5712      0.9500      1.0000      0.3000      0.5000      0.2000           0
1410.0          C                  2000.0000      0.0000    257.7950    504.3757      1.0000      1.6153      0.9500      1.0000      0.0000      0.0500      0.9000           0
1410.0          C                  2000.0000      0.0000    257.7950    504.3757      1.0000      7.0377      0.9500      1.0000      0.0000      0.0500      0.9000           0
1413.0          C                  2000.0000      0.0000    277.6550    727.3641      1.0000      2.0256      0.9500      1.0000      0.0000      0.0500      0.9000           0
1413.0          C                  2000.0000      0.0000    277.6550    727.3641      1.0000      0.7000      0.9500      1.0000      0.3000      0.5000      0.2000           0
1413.0          C                  2000.0000      0.0000    277.6550    727.3641      1.0000      7.1166      0.9500      1.0000      0.0000      0.0500      0.9000           0
1413.0          C                  2000.0000      0.0000    277.6550    727.3641      1.0000      0.7077      0.9500      1.0000      0.3000      0.5000      0.2000           0
1413.0          C                  2000.0000      0.0000    277.6550    727.3641      1.0000      1.8507      0.9500      1.0000      0.0000      0.0500      0.9000           0
1413.0          C                  2000.0000      0.0000    277.6550    727.3641      1.0000      7.4836      0.9500      1.0000      0.0000      0.0500      0.9000           0
1410.0          C                  2000.0000      0.0000    257.7950    504.3757      1.0000      8.5774      0.9500      1.0000      0.0000      0.0500      0.9000           0
1410.0          C                  2000.0000      0.0000    257.7950    504.3757      1.0000      2.2655      0.9500      1.0000      0.0000      0.0500      0.9000           0
1413.0          C                  2000.0000      0.0000    277.6550    727.3641      1.0000      0.7077      0.9500      1.0000      0.3000      0.5000      0.2000           0
1413.0          C                  2000.0000      0.0000    277.6550    727.3641      1.0000      1.8507      0.9500      1.0000      0.0000      0.0500      0.9000           0
1413.0          C                  2000.0000      0.0000    277.6550    727.3641      1.0000      7.4836      0.9500      1.0000      0.0000      0.0500      0.9000           0
1410.0          C                  2000.0000      0.0000    257.7950    504.3757      1.0000      8.5774      0.9500      1.0000      0.0000      0.0500      0.9000           0
1410.0          C                  2000.0000      0.0000    257.7950    504.3757      1.0000      2.2655      0.9500      1.0000      0.0000      0.0500      0.9000           0
1413.0          C                  2000.0000      0.0000    277.6550    727.3641      1.0000      2.0163      0.9500      1.0000      0.0000      0.0500      0.9000           0
1413.0          C                  2000.0000      0.0000    277.6550    727.3641      1.0000      9.9172      0.9500      1.0000      0.0000      0.0500      0.9000           0
1413.0          C                  2000.0000      0.0000    277.6550    727.3641      1.0000      0.2097      0.9500      1.0000      0.9500      0.5000      0.0100           0
1410.0          C                  2000.0000      0.0000    257.7950    504.3757      1.0000      0.1996      0.9500      1.0000      0.9500      0.5000      0.0100           0
1410.0          C                  2000.0000      0.0000    257.7950    504.3757      1.0000      8.4371      0.9500      1.0000      0.0000      0.0500      0.9000           0
1410.0          C                  2000.0000      0.0000    257.7950    504.3757      1.0000      1.7208      0.9500      1.0000      0.0000      0.0500      0.9000           0
1413.0          C                  2000.0000      0.0000    277.6550    727.3641      1.0000      0.3376      0.9500      1.0000      0.3000      0.5000      0.2000           0
1413.0          C                  2000.0000      0.0000    277.6550    727.3641      1.0000      1.6611      0.9500      1.0000      0.0000      0.0500      0.9000           0
1413.0          C                  2000.0000      0.0000    277.6550    727.3641      1.0000     10.0951      0.9500      1.0000      0.0000      0.0500      0.9000           0
1413.0          C                  2000.0000      0.0000    277.6550    727.3641      1.0000      1.4373      0.9500      1.0000      0.0000      0.0500      0.9000           0
1413.0          C                  2000.0000      0.0000    277.6550    727.3641      1.0000      0.3754      0.9500      1.0000      0.3000      0.5000      0.2000           0
1413.0          C                  2000.0000      0.0000    277.6550    727.3641      0.7500      0.4199      0.9500      1.0000      0.3000      0.5000      0.2000           0
1413.0          C                  2000.0000      0.0000    277.6550    727.3641      0.7500      1.3752      0.9500      1.0000      0.0000      0.0500      0.9000           0
1410.0          C                  2000.0000      0.0000    257.7950    504.3757      0.7500      1.5002      0.9500      1.0000      0.0000      0.0500      0.9000           0
1410.0          C                  2000.0000      0.0000    257.7950    504.3757      0.7500      0.4474      0.9500      1.0000      0.3000      0.5000      0.2000           0
1413.0          C                  2000.0000      0.0000    277.6550    727.3641      1.0000      1.7697      0.9500      1.0000      0.0000      0.0500      0.9000           0
1413.0          C                  2000.0000      0.0000    277.6550    727.3641      1.0000     10.7512      0.9500      1.0000      0.0000      0.0500      0.9000           0
1413.0          C                  2000.0000      0.0000    277.6550    727.3641      1.0000      0.2496      0.9500      1.0000      0.9500      0.5000      0.0100           0
1413.0          C                  2000.0000      0.0000    277.6550    727.3641      1.0000      1.7697      0.9500      1.0000      0.0000      0.0500      0.9000           0
1413.0          C                  2000.0000      0.0000    277.6550    727.3641      1.0000     10.7512      0.9500      1.0000      0.0000      0.0500      0.9000           0
1413.0          C                  2000.0000      0.0000    277.6550    727.3641      1.0000      0.2496      0.9500      1.0000      0.9500      0.5000      0.0100           0
1413.0          C                  2000.0000      0.0000    277.6550    727.3641      1.0000      0.7110      0.9500      1.0000      0.3000      0.5000      0.2000           0
1413.0          C                  2000.0000      0.0000    277.6550    727.3641      1.0000      1.6432      0.9500      1.0000      0.0000      0.0500      0.9000           0
1413.0          C                  2000.0000      0.0000    277.6550    727.3641      1.0000      9.2100      0.9500      1.0000      0.0000      0.0500      0.9000           0
1413.0          C                  2000.0000      0.0000    277.6550    727.3641      1.0000      8.7880      0.9500      1.0000      0.0000      0.0500      0.9000           0
1413.0          C                  2000.0000      0.0000    277.6550    727.3641      1.0000      1.8698      0.9500      1.0000      0.0000      0.0500      0.9000           0
1413.0          C                  2000.0000      0.0000    277.6550    727.3641      1.0000      0.7377      0.9500      1.0000      0.3000      0.5000      0.2000           0
1413.0          C                  2000.0000      0.0000    277.6550    727.3641      1.0000      1.8785      0.9500      1.0000      0.0000      0.0500      0.9000           0
1413.0          C                  2000.0000      0.0000    277.6550    727.3641      1.0000      9.5730      0.9500      1.0000      0.0000      0.0500      0.9000           0
1413.0          C                  2000.0000      0.0000    277.6550    727.3641      1.0000      1.8785      0.9500      1.0000      0.0000      0.0500      0.9000           0
1413.0          C                  2000.0000      0.0000    277.6550    727.3641      1.0000      9.5730      0.9500      1.0000      0.0000      0.0500      0.9000           0
1413.0          C                  2000.0000      0.0000    277.6550    727.3641      1.0000      1.3792      0.9500      1.0000      0.0000      0.0500      0.9000           0
1413.0          C                  2000.0000      0.0000    277.6550    727.3641      1.0000      0.4800      0.9500      1.0000      0.3000      0.5000      0.2000           0
1410.0          C                  2000.0000      0.0000    257.7950    504.3757      1.0000      1.3756      0.9500      1.0000      0.0000      0.0500      0.9000           0
1410.0          C                  2000.0000      0.0000    257.7950    504.3757      1.0000      0.4367      0.9500      1.0000      0.3000      0.5000      0.2000           0
1410.0          C                  2000.0000      0.0000    257.7950    504.3757      0.7500      0.5235      0.9500      1.0000      0.3000      0.5000      0.2000           0
1410.0          C                  2000.0000      0.0000    257.7950    504.3757      0.7500      0.9035      0.9500      1.0000      0.0000      0.5000      0.9000           0
942.0           C                  2000.0000      0.0000    260.9100    478.1568      0.7500      0.4946      0.9500      1.0000      0.3000      0.5000      0.2000           0
942.0           C                  2000.0000      0.0000    260.9100    478.1568      0.7500      0.7776      0.9500      1.0000      0.0000      0.5000      0.9000           0
1410.0          C                  2000.0000      0.0000    257.7950    504.3757      1.0000      1.3556      0.9500      1.0000      0.0000      0.0500      0.9000           0
1410.0          C                  2000.0000      0.0000    257.7950    504.3757      1.0000      0.5066      0.9500      1.0000      0.3000      0.5000      0.2000           0
942.0           C                  2000.0000      0.0000    260.9100    478.1568      1.0000      0.4162      0.9500      1.0000      0.3000      0.5000      0.2000           0
1374.0          C                  2000.0000      0.0000    259.6100    511.5580      1.0000      0.4273      0.9500      1.0000      0.3000      0.5000      0.2000           0
1413.0          C                  2000.0000      0.0000    277.6550    727.3641      1.0000      1.7256      0.9500      1.0000      0.0000      0.0500      0.9000           0
1413.0          C                  2000.0000      0.0000    277.6550    727.3641      1.0000      0.5469      0.9500      1.0000      0.3000      0.5000      0.2000           0
1413.0          C                  2000.0000      0.0000    277.6550    727.3641      1.0000      8.0804      0.9500      1.0000      0.0000      0.0500      0.9000           0
1410.0          C                  2000.0000      0.0000    257.7950    504.3757      1.0000      2.0460      0.9500      1.0000      0.0000      0.0500      0.9000           0
1410.0          C                  2000.0000      0.0000    257.7950    504.3757      1.0000      7.3307      0.9500      1.0000      0.0000      0.0500      0.9000           0
1413.0          C                  2000.0000      0.0000    277.6550    727.3641      1.0000      1.9655      0.9500      1.0000      0.0000      0.0500      0.9000           0
1413.0          C                  2000.0000      0.0000    277.6550    727.3641      1.0000      6.2728      0.9500      1.0000      0.0000      0.0500      0.9000           0
1413.0          C                  2000.0000      0.0000    277.6550    727.3641      1.0000      1.4922      0.9500      1.0000      0.0000      0.0500      0.9000           0
1413.0          C                  2000.0000      0.0000    277.6550    727.3641      1.0000      0.5931      0.9500      1.0000      0.3000      0.5000      0.2000           0
1413.0          C                  2000.0000      0.0000    277.6550    727.3641      1.0000      6.6113      0.9500      1.0000      0.0000      0.0500      0.9000           0
1413.0          C                  2000.0000      0.0000    277.6550    727.3641      1.0000      1.7621      0.9500      1.0000      0.0000      0.0500      0.9000           0
1413.0          C                  2000.0000      0.0000    277.6550    727.3641      1.0000      6.2995      0.9500      1.0000      0.0000      0.0500      0.9000           0
1413.0          C                  2000.0000      0.0000    277.6550    727.3641      1.0000      1.7621      0.9500      1.0000      0.0000      0.0500      0.9000           0
1413.0          C                  2000.0000      0.0000    277.6550    727.3641      1.0000      6.2995      0.9500      1.0000      0.0000      0.0500      0.9000           0
1410.0          C                  2000.0000      0.0000    257.7950    504.3757      0.7500      0.3964      0.9500      1.0000      0.3000      0.5000      0.2000           0
1410.0          C                  2000.0000      0.0000    257.7950    504.3757      0.7500      1.1927      0.9500      1.0000      0.0000      0.0500      0.9000           0
1410.0          C                  2000.0000      0.0000    257.7950    504.3757      1.0000      1.5664      0.9500      1.0000      0.0000      0.0500      0.9000           0
1410.0          C                  2000.0000      0.0000    257.7950    504.3757      1.0000      0.4379      0.9500      1.0000      0.3000      0.5000      0.2000           0
1413.0          C                  2000.0000      0.0000    277.6550    727.3641      1.0000      1.8581      0.9500      1.0000      0.0000      0.0500      0.9000           0
1413.0          C                  2000.0000      0.0000    277.6550    727.3641      1.0000      0.4409      0.9500      1.0000      0.3000      0.5000      0.2000           0
1413.0          C                  2000.0000      0.0000    277.6550    727.3641      1.0000      0.6943      0.9500      1.0000      0.0000      0.5000      0.9000           0
1413.0          C                  2000.0000      0.0000    277.6550    727.3641      1.0000      1.5238      0.9500      1.0000      0.0000      0.0500      0.9000           0
1413.0          C                  2000.0000      0.0000    277.6550    727.3641      0.7500      0.5784      0.9500      1.0000      0.3000      0.5000      0.2000           0
1413.0          C                  2000.0000      0.0000    277.6550    727.3641      0.7500      1.1729      0.9500      1.0000      0.0000      0.0500      0.9000           0
1410.0          C                  2000.0000      0.0000    257.7950    504.3757      0.7500      1.0706      0.9500      1.0000      0.0000      0.0500      0.9000           0
1410.0          C                  2000.0000      0.0000    257.7950    504.3757      0.7500      0.5958      0.9500      1.0000      0.3000      0.5000      0.2000           0
1413.0          C                  2000.0000      0.0000    277.6550    727.3641      1.0000      1.6047      0.9500      1.0000      0.0000      0.0500      0.9000           0
1413.0          C                  2000.0000      0.0000    277.6550    727.3641      1.0000      0.5581      0.9500      1.0000      0.3000      0.5000      0.2000           0
1410.0          C                  2000.0000      0.0000    257.7950    504.3757      1.0000      1.5687      0.9500      1.0000      0.0000      0.0500      0.9000           0
1410.0          C                  2000.0000      0.0000    257.7950    504.3757      1.0000      0.5492      0.9500      1.0000      0.3000      0.5000      0.2000           0
1413.0          C                  2000.0000      0.0000    277.6550    727.3641      1.0000      0.2886      0.9500      1.0000      0.3000      0.5000      0.2000           0
1410.0          C                  2000.0000      0.0000    257.7950    504.3757      1.0000      0.2038      0.9500      1.0000      0.9500      0.5000      0.0100           0
1410.0          C                  2000.0000      0.0000    257.7950    504.3757      1.0000      1.1804      0.9500      1.0000      0.0000      0.0500      0.9000           0
1413.0          C                  2000.0000      0.0000    277.6550    727.3641      0.7500      0.2770      0.9500      1.0000      0.9500      0.5000      0.0100           0
1410.0          C                  2000.0000      0.0000    257.7950    504.3757      0.7500      0.3970      0.9500      1.0000      0.3000      0.5000      0.2000           0
1410.0          C                  2000.0000      0.0000    257.7950    504.3757      0.7500      1.0112      0.9500      1.0000      0.0000      0.0500      0.9000           0
1413.0          C                  2000.0000      0.0000    277.6550    727.3641      1.0000      0.5428      0.9500      1.0000      0.3000      0.5000      0.2000           0
1413.0          C                  2000.0000      0.0000    277.6550    727.3641      1.0000      1.5681      0.9500      1.0000      0.0000      0.0500      0.9000           0
1410.0          C                  2000.0000      0.0000    257.7950    504.3757      0.7500      0.6636      0.9500      1.0000      0.3000      0.5000      0.2000           0
1410.0          C                  2000.0000      0.0000    257.7950    504.3757      0.7500      1.2582      0.9500      1.0000      0.0000      0.0500      0.9000           0
1413.0          C                  2000.0000      0.0000    277.6550    727.3641      0.7500      1.1423      0.9500      1.0000      0.0000      0.0500      0.9000           0
1413.0          C                  2000.0000      0.0000    277.6550    727.3641      0.7500      0.7358      0.9500      1.0000      0.3000      0.5000      0.2000           0
1413.0          C                  2000.0000      0.0000    277.6550    727.3641      1.0000      1.3388      0.9500      1.0000      0.0000      0.0500      0.9000           0
1413.0          C                  2000.0000      0.0000    277.6550    727.3641      1.0000      0.5611      0.9500      1.0000      0.3000      0.5000      0.2000           0
1413.0          C                  2000.0000      0.0000    277.6550    727.3641      1.0000      0.5936      0.9500      1.0000      0.3000      0.5000      0.2000           0
1413.0          C                  2000.0000      0.0000    277.6550    727.3641      1.0000      1.2164      0.9500      1.0000      0.0000      0.0500      0.9000           0
1410.0          C                  2000.0000      0.0000    257.7950    504.3757      1.0000      1.2025      0.9500      1.0000      0.0000      0.0500      0.9000           0
1410.0          C                  2000.0000      0.0000    257.7950    504.3757      1.0000      0.7183      0.9500      1.0000      0.3000      0.5000      0.2000           0
1410.0          C                  2000.0000      0.0000    257.7950    504.3757      1.0000      0.4426      0.9500      1.0000      0.3000      0.5000      0.2000           0
1410.0          C                  2000.0000      0.0000    257.7950    504.3757      1.0000      1.1345      0.9500      1.0000      0.0000      0.0500      0.9000           0
1374.0          C                  2000.0000      0.0000    259.6100    511.5580      1.0000      0.8966      0.9500      1.0000      0.0000      0.5000      0.9000           0
1374.0          C                  2000.0000      0.0000    259.6100    511.5580      1.0000      0.5315      0.9500      1.0000      0.3000      0.5000      0.2000           0
1413.0          C                  2000.0000      0.0000    277.6550    727.3641      1.0000      0.4533      0.9500      1.0000      0.3000      0.5000      0.2000           0
1413.0          C                  2000.0000      0.0000    277.6550    727.3641      1.0000      1.4114      0.9500      1.0000      0.0000      0.0500      0.9000           0
1410.0          C                  2000.0000      0.0000    257.7950    504.3757      0.7500      0.2712      0.9500      1.0000      0.9500      0.5000      0.0100           0
1410.0          C                  2000.0000      0.0000    257.7950    504.3757      0.7500      1.0274      0.9500      1.0000      0.0000      0.0500      0.9000           0
942.0           C                  2000.0000      0.0000    260.9100    478.1568      0.7500      0.1509      0.9500      1.0000      0.9500      0.5000      0.0100           0
1413.0          C                  2000.0000      0.0000    277.6550    727.3641      0.7500      0.3963      0.9500      1.0000      0.3000      0.5000      0.2000           0
1413.0          C                  2000.0000      0.0000    277.6550    727.3641      0.7500      1.2066      0.9500      1.0000      0.0000      0.0500      0.9000           0
1410.0          C                  2000.0000      0.0000    257.7950    504.3757      0.7500      0.1949      0.9500      1.0000      0.9500      0.5000      0.0100           0
1413.0          C                  2000.0000      0.0000    277.6550    727.3641      0.7500      0.1568      0.9500      1.0000      0.9500      0.5000      0.0100           0
1410.0          C                  2000.0000      0.0000    257.7950    504.3757      0.7500      0.6807      0.9500      1.0000      0.3000      0.5000      0.2000           0
1410.0          C                  2000.0000      0.0000    257.7950    504.3757      0.7500      1.1249      0.9500      1.0000      0.0000      0.0500      0.9000           0
1413.0          C                  2000.0000      0.0000    277.6550    727.3641      0.7500      0.6249      0.9500      1.0000      0.3000      0.5000      0.2000           0
1413.0          C                  2000.0000      0.0000    277.6550    727.3641      0.7500      1.1530      0.9500      1.0000      0.0000      0.0500      0.9000           0
1410.0          C                  2000.0000      0.0000    257.7950    504.3757      1.0000      1.2499      0.9500      1.0000      0.0000      0.0500      0.9000           0
1410.0          C                  2000.0000      0.0000    257.7950    504.3757      1.0000      0.5459      0.9500      1.0000      0.3000      0.5000      0.2000           0
1413.0          C                  2000.0000      0.0000    277.6550    727.3641      1.0000      1.2777      0.9500      1.0000      0.0000      0.0500      0.9000           0
1413.0          C                  2000.0000      0.0000    277.6550    727.3641      1.0000      0.5329      0.9500      1.0000      0.3000      0.5000      0.2000           0
1413.0          C                  2000.0000      0.0000    277.6550    727.3641      1.0000      8.1380      0.9500      1.0000      0.0000      0.0500      0.9000           0
1410.0          C                  2000.0000      0.0000    257.7950    504.3757      1.0000      1.1365      0.9500      1.0000      0.0000      0.0500      0.9000           0
1410.0          C                  2000.0000      0.0000    257.7950    504.3757      1.0000      0.5607      0.9500      1.0000      0.3000      0.5000      0.2000           0
1413.0          C                  2000.0000      0.0000    277.6550    727.3641      1.0000      0.8673      0.9500      1.0000      0.0000      0.5000      0.9000           0
1413.0          C                  2000.0000      0.0000    277.6550    727.3641      1.0000      0.5410      0.9500      1.0000      0.3000      0.5000      0.2000           0
1410.0          C                  2000.0000      0.0000    257.7950    504.3757      1.0000      1.1365      0.9500      1.0000      0.0000      0.0500      0.9000           0
1410.0          C                  2000.0000      0.0000    257.7950    504.3757      1.0000      0.5607      0.9500      1.0000      0.3000      0.5000      0.2000           0
1413.0          C                  2000.0000      0.0000    277.6550    727.3641      1.0000      0.8673      0.9500      1.0000      0.0000      0.5000      0.9000           0
1413.0          C                  2000.0000      0.0000    277.6550    727.3641      1.0000      0.5410      0.9500      1.0000      0.3000      0.5000      0.2000           0
1410.0          C                  2000.0000      0.0000    257.7950    504.3757      1.0000      1.1365      0.9500      1.0000      0.0000      0.0500      0.9000           0
1410.0          C                  2000.0000      0.0000    257.7950    504.3757      1.0000      0.5607      0.9500      1.0000      0.3000      0.5000      0.2000           0
1413.0          C                  2000.0000      0.0000    277.6550    727.3641      1.0000      0.8673      0.9500      1.0000      0.0000      0.5000      0.9000           0
1413.0          C                  2000.0000      0.0000    277.6550    727.3641      1.0000      0.5410      0.9500      1.0000      0.3000      0.5000      0.2000           0
1410.0          C                  2000.0000      0.0000    257.7950    504.3757      1.0000      1.1365      0.9500      1.0000      0.0000      0.0500      0.9000           0
1410.0          C                  2000.0000      0.0000    257.7950    504.3757      1.0000      0.5607      0.9500      1.0000      0.3000      0.5000      0.2000           0
1413.0          C                  2000.0000      0.0000    277.6550    727.3641      1.0000      0.8673      0.9500      1.0000      0.0000      0.5000      0.9000           0
1413.0          C                  2000.0000      0.0000    277.6550    727.3641      1.0000      0.5410      0.9500      1.0000      0.3000      0.5000      0.2000           0
1410.0          C                  2000.0000      0.0000    257.7950    504.3757      0.7500      0.3216      0.9500      1.0000      0.3000      0.5000      0.2000           0
1410.0          C                  2000.0000      0.0000    257.7950    504.3757      0.7500      1.1502      0.9500      1.0000      0.0000      0.0500      0.9000           0
1413.0          C                  2000.0000      0.0000    277.6550    727.3641      0.7500      0.4873      0.9500      1.0000      0.3000      0.5000      0.2000           0
1413.0          C                  2000.0000      0.0000    277.6550    727.3641      0.7500      1.1710      0.9500      1.0000      0.0000      0.0500      0.9000           0
1413.0          C                  2000.0000      0.0000    277.6550    727.3641      1.0000      1.4215      0.9500      1.0000      0.0000      0.0500      0.9000           0
1413.0          C                  2000.0000      0.0000    277.6550    727.3641      1.0000      0.4585      0.9500      1.0000      0.3000      0.5000      0.2000           0
1374.0          C                  2000.0000      0.0000    259.6100    511.5580      1.0000      0.4127      0.9500      1.0000      0.3000      0.5000      0.2000           0
[...]
1410.0          C                  2000.0000      0.0000    257.7950    504.3757      0.7500      1.5791      0.9500      1.0000      0.0000      0.0500      0.9000           0
1410.0          C                  2000.0000      0.0000    257.7950    504.3757      0.7500      6.5716      0.9500      1.0000      0.0000      0.0500      0.9000           0
1410.0          C                  2000.0000      0.0000    257.7950    504.3757      0.7500      0.7408      0.9500      1.0000      0.3000      0.5000      0.2000           0
1413.0          C                  2000.0000      0.0000    277.6550    727.3641      0.7500      1.4513      0.9500      1.0000      0.0000      0.0500      0.9000           0
1413.0          C                  2000.0000      0.0000    277.6550    727.3641      0.7500      7.0938      0.9500      1.0000      0.0000      0.0500      0.9000           0
1413.0          C                  2000.0000      0.0000    277.6550    727.3641      0.7500      0.6430      0.9500      1.0000      0.3000      0.5000      0.2000           0
1410.0          C                  2000.0000      0.0000    257.7950    504.3757      1.0000      7.7391      0.9500      1.0000      0.0000      0.0500      0.9000           0
1410.0          C                  2000.0000      0.0000    257.7950    504.3757      1.0000      1.7735      0.9500      1.0000      0.0000      0.0500      0.9000           0
1410.0          C                  2000.0000      0.0000    257.7950    504.3757      1.0000      0.5642      0.9500      1.0000      0.3000      0.5000      0.2000           0
1413.0          C                  2000.0000      0.0000    277.6550    727.3641      1.0000      1.8738      0.9500      1.0000      0.0000      0.0500      0.9000           0
1413.0          C                  2000.0000      0.0000    277.6550    727.3641      1.0000      0.5784      0.9500      1.0000      0.3000      0.5000      0.2000           0
1413.0          C                  2000.0000      0.0000    277.6550    727.3641      1.0000      7.8122      0.9500      1.0000      0.0000      0.0500      0.9000           0
1413.0          C                  2000.0000      0.0000    277.6550    727.3641      0.7500      0.2658      0.9500      1.0000      0.9500      0.5000      0.0100           0
1410.0          C                  2000.0000      0.0000    257.7950    504.3757      0.7500      0.4025      0.9500      1.0000      0.3000      0.5000      0.2000           0
1410.0          C                  2000.0000      0.0000    257.7950    504.3757      0.7500      0.9567      0.9500      1.0000      0.0000      0.5000      0.9000           0
1413.0          C                  2000.0000      0.0000    277.6550    727.3641      1.0000      0.4272      0.9500      1.0000      0.3000      0.5000      0.2000           0
1410.0          C                  2000.0000      0.0000    257.7950    504.3757      1.0000      1.0948      0.9500      1.0000      0.0000      0.0500      0.9000           0
1410.0          C                  2000.0000      0.0000    257.7950    504.3757      1.0000      0.4389      0.9500      1.0000      0.3000      0.5000      0.2000           0
1413.0          C                  2000.0000      0.0000    277.6550    727.3641      1.0000      0.4272      0.9500      1.0000      0.3000      0.5000      0.2000           0
1410.0          C                  2000.0000      0.0000    257.7950    504.3757      1.0000      1.0948      0.9500      1.0000      0.0000      0.0500      0.9000           0
1410.0          C                  2000.0000      0.0000    257.7950    504.3757      1.0000      0.4389      0.9500      1.0000      0.3000      0.5000      0.2000           0
1413.0          C                  2000.0000      0.0000    277.6550    727.3641      1.0000      0.4272      0.9500      1.0000      0.3000      0.5000      0.2000           0
1410.0          C                  2000.0000      0.0000    257.7950    504.3757      1.0000      1.0948      0.9500      1.0000      0.0000      0.0500      0.9000           0
1410.0          C                  2000.0000      0.0000    257.7950    504.3757      1.0000      0.4389      0.9500      1.0000      0.3000      0.5000      0.2000           0
1413.0          C                  2000.0000      0.0000    277.6550    727.3641      1.0000      0.4272      0.9500      1.0000      0.3000      0.5000      0.2000           0
1410.0          C                  2000.0000      0.0000    257.7950    504.3757      1.0000      1.0948      0.9500      1.0000      0.0000      0.0500      0.9000           0
1410.0          C                  2000.0000      0.0000    257.7950    504.3757      1.0000      0.4389      0.9500      1.0000      0.3000      0.5000      0.2000           0
1410.0          C                  2000.0000      0.0000    257.7950    504.3757      0.7500      1.3799      0.9500      1.0000      0.0000      0.0500      0.9000           0
1410.0          C                  2000.0000      0.0000    257.7950    504.3757      0.7500      8.0077      0.9500      1.0000      0.0000      0.0500      0.9000           0
1410.0          C                  2000.0000      0.0000    257.7950    504.3757      0.7500      0.6528      0.9500      1.0000      0.3000      0.5000      0.2000           0
1413.0          C                  2000.0000      0.0000    277.6550    727.3641      0.7500      1.4445      0.9500      1.0000      0.0000      0.0500      0.9000           0
1413.0          C                  2000.0000      0.0000    277.6550    727.3641      0.7500      0.6789      0.9500      1.0000      0.3000      0.5000      0.2000           0
1413.0          C                  2000.0000      0.0000    277.6550    727.3641      1.0000      6.7589      0.9500      1.0000      0.0000      0.0500      0.9000           0
1413.0          C                  2000.0000      0.0000    277.6550    727.3641      1.0000      1.7073      0.9500      1.0000      0.0000      0.0500      0.9000           0
1413.0          C                  2000.0000      0.0000    277.6550    727.3641      1.0000      0.5958      0.9500      1.0000      0.3000      0.5000      0.2000           0
1410.0          C                  2000.0000      0.0000    257.7950    504.3757      1.0000      6.8887      0.9500      1.0000      0.0000      0.0500      0.9000           0
1410.0          C                  2000.0000      0.0000    257.7950    504.3757      1.0000      1.6480      0.9500      1.0000      0.0000      0.0500      0.9000           0
1410.0          C                  2000.0000      0.0000    257.7950    504.3757      1.0000      0.6849      0.9500      1.0000      0.3000      0.5000      0.2000           0
1410.0          C                  2000.0000      0.0000    257.7950    504.3757      1.0000      0.7179      0.9500      1.0000      0.3000      0.5000      0.2000           0
1410.0          C                  2000.0000      0.0000    257.7950    504.3757      1.0000      1.8536      0.9500      1.0000      0.0000      0.0500      0.9000           0
1410.0          C                  2000.0000      0.0000    257.7950    504.3757      1.0000      7.1847      0.9500      1.0000      0.0000      0.0500      0.9000           0
1413.0          C                  2000.0000      0.0000    277.6550    727.3641      1.0000      1.7054      0.9500      1.0000      0.0000      0.0500      0.9000           0
1413.0          C                  2000.0000      0.0000    277.6550    727.3641      1.0000      0.6903      0.9500      1.0000      0.3000      0.5000      0.2000           0
1413.0          C                  2000.0000      0.0000    277.6550    727.3641      1.0000      6.9688      0.9500      1.0000      0.0000      0.0500      0.9000           0
1410.0          C                  2000.0000      0.0000    257.7950    504.3757      1.0000      0.7179      0.9500      1.0000      0.3000      0.5000      0.2000           0
1410.0          C                  2000.0000      0.0000    257.7950    504.3757      1.0000      1.8536      0.9500      1.0000      0.0000      0.0500      0.9000           0
1410.0          C                  2000.0000      0.0000    257.7950    504.3757      1.0000      7.1847      0.9500      1.0000      0.0000      0.0500      0.9000           0
1413.0          C                  2000.0000      0.0000    277.6550    727.3641      1.0000      1.7054      0.9500      1.0000      0.0000      0.0500      0.9000           0
1413.0          C                  2000.0000      0.0000    277.6550    727.3641      1.0000      0.6903      0.9500      1.0000      0.3000      0.5000      0.2000           0
1413.0          C                  2000.0000      0.0000    277.6550    727.3641      1.0000      6.9688      0.9500      1.0000      0.0000      0.0500      0.9000           0
1410.0          C                  2000.0000      0.0000    257.7950    504.3757      1.0000      0.7179      0.9500      1.0000      0.3000      0.5000      0.2000           0
1410.0          C                  2000.0000      0.0000    257.7950    504.3757      1.0000      1.8536      0.9500      1.0000      0.0000      0.0500      0.9000           0
1410.0          C                  2000.0000      0.0000    257.7950    504.3757      1.0000      7.1847      0.9500      1.0000      0.0000      0.0500      0.9000           0
1413.0          C                  2000.0000      0.0000    277.6550    727.3641      1.0000      1.7054      0.9500      1.0000      0.0000      0.0500      0.9000           0
1413.0          C                  2000.0000      0.0000    277.6550    727.3641      1.0000      0.6903      0.9500      1.0000      0.3000      0.5000      0.2000           0
1413.0          C                  2000.0000      0.0000    277.6550    727.3641      1.0000      6.9688      0.9500      1.0000      0.0000      0.0500      0.9000           0
1410.0          C                  2000.0000      0.0000    257.7950    504.3757      0.7500      0.4173      0.9500      1.0000      0.3000      0.5000      0.2000           0
1413.0          C                  2000.0000      0.0000    277.6550    727.3641      0.7500      0.3891      0.9500      1.0000      0.3000      0.5000      0.2000           0
1413.0          C                  2000.0000      0.0000    277.6550    727.3641      0.7500      1.0751      0.9500      1.0000      0.0000      0.0500      0.9000           0
1410.0          C                  2000.0000      0.0000    257.7950    504.3757      0.7500      7.0946      0.9500      1.0000      0.0000      0.0500      0.9000           0
1410.0          C                  2000.0000      0.0000    257.7950    504.3757      0.7500      1.7739      0.9500      1.0000      0.0000      0.0500      0.9000           0
1410.0          C                  2000.0000      0.0000    257.7950    504.3757      0.7500      0.4487      0.9500      1.0000      0.3000      0.5000      0.2000           0
942.0           C                  2000.0000      0.0000    260.9100    478.1568      0.7500      7.6936      0.9500      1.0000      0.0000      0.0500      0.9000           0
942.0           C                  2000.0000      0.0000    260.9100    478.1568      0.7500      1.4344      0.9500      1.0000      0.0000      0.0500      0.9000           0
942.0           C                  2000.0000      0.0000    260.9100    478.1568      0.7500      0.4552      0.9500      1.0000      0.3000      0.5000      0.2000           0
1413.0          C                  2000.0000      0.0000    277.6550    727.3641      0.7500      0.5566      0.9500      1.0000      0.3000      0.5000      0.2000           0
1413.0          C                  2000.0000      0.0000    277.6550    727.3641      0.7500      1.7744      0.9500      1.0000      0.0000      0.0500      0.9000           0
1413.0          C                  2000.0000      0.0000    277.6550    727.3641      0.7500      7.1938      0.9500      1.0000      0.0000      0.0500      0.9000           0
942.0           C                  2000.0000      0.0000    260.9100    478.1568      1.0000      8.8269      0.9500      1.0000      0.0000      0.0500      0.9000           0
942.0           C                  2000.0000      0.0000    260.9100    478.1568      1.0000      1.8081      0.9500      1.0000      0.0000      0.0500      0.9000           0
942.0           C                  2000.0000      0.0000    260.9100    478.1568      1.0000      0.6152      0.9500      1.0000      0.3000      0.5000      0.2000           0
1410.0          C                  2000.0000      0.0000    257.7950    504.3757      1.0000      8.4960      0.9500      1.0000      0.0000      0.0500      0.9000           0
1410.0          C                  2000.0000      0.0000    257.7950    504.3757      1.0000      2.1070      0.9500      1.0000      0.0000      0.0500      0.9000           0
1410.0          C                  2000.0000      0.0000    257.7950    504.3757      1.0000      0.6929      0.9500      1.0000      0.3000      0.5000      0.2000           0
1413.0          C                  2000.0000      0.0000    277.6550    727.3641      1.0000      1.8258      0.9500      1.0000      0.0000      0.0500      0.9000           0
1413.0          C                  2000.0000      0.0000    277.6550    727.3641      1.0000      7.1332      0.9500      1.0000      0.0000      0.0500      0.9000           0
1413.0          C                  2000.0000      0.0000    277.6550    727.3641      0.7500      0.3185      0.9500      1.0000      0.3000      0.5000      0.2000           0
1413.0          C                  2000.0000      0.0000    277.6550    727.3641      0.7500      1.2023      0.9500      1.0000      0.0000      0.0500      0.9000           0
1410.0          C                  2000.0000      0.0000    257.7950    504.3757      0.7500      0.3986      0.9500      1.0000      0.3000      0.5000      0.2000           0
1410.0          C                  2000.0000      0.0000    257.7950    504.3757      0.7500      1.2289      0.9500      1.0000      0.0000      0.0500      0.9000           0
1413.0          C                  2000.0000      0.0000    277.6550    727.3641      1.0000      0.3253      0.9500      1.0000      0.3000      0.5000      0.2000           0
1413.0          C                  2000.0000      0.0000    277.6550    727.3641      1.0000      1.1607      0.9500      1.0000      0.0000      0.0500      0.9000           0
1410.0          C                  2000.0000      0.0000    257.7950    504.3757      1.0000      0.5920      0.9500      1.0000      0.3000      0.5000      0.2000           0
1410.0          C                  2000.0000      0.0000    257.7950    504.3757      1.0000      0.8810      0.9500      1.0000      0.0000      0.5000      0.9000           0
1257.0          C                  2000.0000      0.0000    274.4550    611.4122      1.0000      0.4409      0.9500      1.0000      0.3000      0.5000      0.2000           0
1257.0          C                  2000.0000      0.0000    274.4550    611.4122      1.0000      1.4191      0.9500      1.0000      0.0000      0.0500      0.9000           0
1413.0          C                  2000.0000      0.0000    277.6550    727.3641      0.7500      6.4323      0.9500      1.0000      0.0000      0.0500      0.9000           0
1413.0          C                  2000.0000      0.0000    277.6550    727.3641      0.7500      1.5216      0.9500      1.0000      0.0000      0.0500      0.9000           0
1413.0          C                  2000.0000      0.0000    277.6550    727.3641      0.7500      0.6242      0.9500      1.0000      0.3000      0.5000      0.2000           0
1410.0          C                  2000.0000      0.0000    257.7950    504.3757      0.7500      1.4059      0.9500      1.0000      0.0000      0.0500      0.9000           0
1410.0          C                  2000.0000      0.0000    257.7950    504.3757      0.7500      0.5526      0.9500      1.0000      0.3000      0.5000      0.2000           0
1413.0          C                  2000.0000      0.0000    277.6550    727.3641      1.0000      1.9290      0.9500      1.0000      0.0000      0.0500      0.9000           0
1413.0          C                  2000.0000      0.0000    277.6550    727.3641      1.0000      0.6761      0.9500      1.0000      0.3000      0.5000      0.2000           0
1413.0          C                  2000.0000      0.0000    277.6550    727.3641      1.0000      6.6076      0.9500      1.0000      0.0000      0.0500      0.9000           0
1410.0          C                  2000.0000      0.0000    257.7950    504.3757      1.0000      1.9709      0.9500      1.0000      0.0000      0.0500      0.9000           0
1410.0          C                  2000.0000      0.0000    257.7950    504.3757      1.0000      7.1010      0.9500      1.0000      0.0000      0.0500      0.9000           0
1410.0          C                  2000.0000      0.0000    257.7950    504.3757      1.0000      0.5951      0.9500      1.0000      0.3000      0.5000      0.2000           0
1413.0          C                  2000.0000      0.0000    277.6550    727.3641      0.7500      0.2360      0.9500      1.0000      0.9500      0.5000      0.0100           0
1410.0          C                  2000.0000      0.0000    257.7950    504.3757      0.7500      0.4597      0.9500      1.0000      0.3000      0.5000      0.2000           0
1410.0          C                  2000.0000      0.0000    257.7950    504.3757      0.7500      0.8696      0.9500      1.0000      0.0000      0.5000      0.9000           0
1410.0          C                  2000.0000      0.0000    257.7950    504.3757      0.7500      0.6937      0.9500      1.0000      0.3000      0.5000      0.2000           0
1410.0          C                  2000.0000      0.0000    257.7950    504.3757      0.7500      1.1888      0.9500      1.0000      0.0000      0.0500      0.9000           0
1413.0          C                  2000.0000      0.0000    277.6550    727.3641      0.7500      1.2104      0.9500      1.0000      0.0000      0.0500      0.9000           0
1413.0          C                  2000.0000      0.0000    277.6550    727.3641      0.7500      0.5934      0.9500      1.0000      0.3000      0.5000      0.2000           0
1410.0          C                  2000.0000      0.0000    257.7950    504.3757      1.0000      0.5473      0.9500      1.0000      0.3000      0.5000      0.2000           0
1410.0          C                  2000.0000      0.0000    257.7950    504.3757      1.0000      1.6830      0.9500      1.0000      0.0000      0.0500      0.9000           0
1410.0          C                  2000.0000      0.0000    257.7950    504.3757      1.0000      8.7460      0.9500      1.0000      0.0000      0.0500      0.9000           0
1413.0          C                  2000.0000      0.0000    277.6550    727.3641      1.0000      1.9709      0.9500      1.0000      0.0000      0.0500      0.9000           0
1413.0          C                  2000.0000      0.0000    277.6550    727.3641      1.0000      9.7345      0.9500      1.0000      0.0000      0.0500      0.9000           0
942.0           C                  2000.0000      0.0000    260.9100    478.1568      1.0000      0.5635      0.9500      1.0000      0.3000      0.5000      0.2000           0
942.0           C                  2000.0000      0.0000    260.9100    478.1568      1.0000      1.9964      0.9500      1.0000      0.0000      0.0500      0.9000           0
942.0           C                  2000.0000      0.0000    260.9100    478.1568      1.0000      8.3887      0.9500      1.0000      0.0000      0.0500      0.9000           0
